21
Coordinates from ORCA-job 14_opt
  C   1.01861810404686     -0.11716755416335     -0.14043604018503
  C   2.52152766819602     -0.07029891140543     -0.00996903171604
  C   3.20406200334186      1.15368956513426      0.17958458580935
  N   4.53247558668901      1.25785108369224      0.33734182784948
  C   5.26259944750347      0.13576267558476      0.31024036426374
  C   4.70850071327988     -1.15642594451589      0.11701303389922
  C   3.30623016618807     -1.23459076224625     -0.04402228108112
  C   5.54823780270820     -2.34909730453071      0.08319393156599
  C   5.29005361055814     -3.69598425539224     -0.12889886477081
  C   6.54701164492945     -4.37672369245634     -0.03827945863375
  C   7.48728941291680     -3.40504965644808      0.22172258445822
  O   6.89651963036113     -2.17958558099720      0.29716040641202
  H   0.61423277223419      0.83981012161095     -0.52564575802456
  H   0.53759067864033     -0.29965742418617      0.84506146921851
  H   0.68990919153910     -0.93007797947529     -0.81866646438336
  H   2.63013023087374      2.09963623702182      0.20060473355451
  H   6.35240041673382      0.24564520646623      0.44422988384573
  H   2.82268425871452     -2.21300084819137     -0.19708382289248
  H   4.31286496891700     -4.14697778182668     -0.33155584802243
  H   6.73234643516025     -5.45057304899679     -0.15429164404407
  H   8.57073525646815     -3.42319414467848      0.37870639287688
