22
Coordinates from ORCA-job 15_opt
  C   1.25605296734390      0.62362270471309     -0.26408017462274
  C   2.66716638540812      0.00824195424711     -0.16623438757077
  C   2.94806926647946     -0.65658338795322      1.14312346872176
  O   3.19317319720797      0.17647504681455      2.20722435775487
  C   3.40223734171207     -0.59939644744583      3.31215449277926
  C   3.29531426182438     -1.92664509327601      2.99101424770992
  C   2.99249061306860     -1.98033224171945      1.57584629314710
  C   2.79093933806524     -3.19930535643140      0.81254158867385
  C   2.92468070459443     -4.54012015629949      1.14065356840800
  C   2.57953187514654     -5.28871920693758     -0.03354677490756
  C   2.25911245233966     -4.36255763398260     -0.99798052178148
  O   2.38183811587041     -3.09513329441122     -0.49752471674165
  H   1.11344878209996      1.12637780989834     -1.24276867563235
  H   1.09156779891832      1.37632432575370      0.53338350364632
  H   0.47585447043128     -0.15756863207598     -0.16307422935306
  H   3.42871366233483      0.80296341673246     -0.32529328015479
  H   2.80729612226817     -0.74229170240493     -0.96737797411880
  H   3.61965175878930     -0.06329456711815      4.24137472121774
  H   3.41236356431616     -2.77469228571183      3.67437356338581
  H   3.24142685293077     -4.93977669758729      2.10978280773523
  H   2.57021386858603     -6.37889521874161     -0.14812794769375
  H   1.93386660026437     -4.43270333606267     -2.04044393060292
