22
Coordinates from ORCA-job 18_opt
  C   0.86726216730262      0.26306484460250     -0.06413462260582
  C   2.32000452463463     -0.03869609543072      0.07348382442895
  O   3.12869165223734      0.98146986445657      0.51197291554550
  C   4.40678583837123      0.50253823306378      0.57265669659441
  C   4.44702696235597     -0.82357855407287      0.17791412718203
  C   3.07829622801094     -1.16634092965337     -0.14555768418149
  C   5.60871222916303     -1.68722377455025      0.10251495259567
  C   5.79018237243321     -3.00756226790113     -0.27247635150333
  C   7.19047508050991     -3.28334167308116     -0.12953116852613
  C   7.78186116907529     -2.12130369768722      0.32281452378678
  O   6.82301937666515     -1.14797846763118      0.46523245076471
  C   9.18142873034715     -1.74231352864379      0.66326874119608
  H   0.68956661114322      1.09516199565285     -0.77816889303510
  H   0.41862006266683      0.56279763604131      0.90685116916275
  H   0.32803948752661     -0.63004147229176     -0.43191113452810
  H   5.17485869253187      1.20451039602594      0.90905988349124
  H   2.70639571360434     -2.13426526234298     -0.49865448346947
  H   5.00980477659211     -3.69712618432823     -0.61221124255865
  H   7.70462570419601     -4.22843348408799     -0.33825168569907
  H   9.85539337026342     -2.60575899071571      0.50818473583898
  H   9.27216310960203     -1.41831213469275      1.72215840374353
  H   9.54377614076710     -0.90227645273184      0.03276484177652
