28
Coordinates from ORCA-job 23_opt
  C   1.03162349178442     -0.01847278363689     -0.19796768714262
  C   2.54363116041711      0.26859648943941     -0.31098373689778
  C   3.03668718163623      0.01937320146317     -1.72007632262297
  C   3.94328640378210     -0.93441557194970     -2.13123923696619
  O   4.14364043579916     -0.87494794083013     -3.48339131059432
  C   3.35462270818069      0.13319626685698     -3.95570920021239
  C   2.65296867612290      0.71704762964156     -2.92839704839503
  C   2.91262399534697      1.69016943965885      0.18078145619285
  C   2.53438466785262      2.00728969356078      1.64505132480270
  C   3.33274440289491      3.28770535479599      1.98514345685486
  C   4.58104009749201      3.26879256802262      1.04840096344291
  C   4.42295535597175      2.00884291916777      0.16334243867423
  H   0.79377955847959     -1.03563874267082     -0.56908006820521
  H   0.43941603650543      0.70288331279429     -0.79939615549706
  H   0.68155851770311      0.05117398030211      0.85148625202859
  H   3.07739598169012     -0.44990098758356      0.35318652884043
  H   4.51162852706573     -1.70290646446233     -1.59634935834095
  H   3.40422470139647      0.31394081727574     -5.03492479963734
  H   1.94480702251338      1.54912360404558     -3.02148756054187
  H   2.39030151112713      2.42627791828479     -0.47696881431284
  H   2.86274187214600      1.16162286262193      2.29164181962293
  H   1.44395952869635      2.12979108319225      1.80646646057831
  H   3.60513740312854      3.33401173768948      3.05914805923539
  H   2.71309283856639      4.18658201408055      1.78287871615552
  H   5.53263774636796      3.25275848194673      1.61738347851783
  H   4.61049238355219      4.18464072796502      0.42233699760175
  H   4.97059333990448      1.14949947183411      0.61241818427190
  H   4.82600445387624      2.13895291649372     -0.86069483745365
