20
Coordinates from ORCA-job 29_opt
  C   0.78758784044445      0.19261830629217     -0.10896418117934
  C   2.26487545440043     -0.00830535549996      0.06698749358602
  C   3.20274145634349      0.93892856990858      0.42343957019241
  O   4.45576285031202      0.39126284576988      0.49152528962331
  C   4.33171115047204     -0.93493998797540      0.17373929754652
  C   3.00397470250810     -1.23334169804358     -0.09655433428516
  C   5.52576015349156     -1.73993955075287      0.17912348759667
  O   5.38336931915748     -3.07334933935408     -0.14077878375310
  C   6.61008482956754     -3.65475873758075     -0.07026003458767
  C   7.56717055488192     -2.73187116895623      0.28905718575301
  C   6.87089923886661     -1.48445712213842      0.45165463811758
  O   7.37659749223376     -0.27216047555173      0.79933909188454
  H   0.49653835250504      1.24601343555098      0.07202340822957
  H   0.20421234224343     -0.44203030213462      0.59074571527892
  H   0.45989462896690     -0.07549133726639     -1.13569178098719
  H   3.13770908185195      2.00618417411587      0.65915361009435
  H   2.61108091438235     -2.21571805343839     -0.37925660505388
  H   6.65000137665025     -4.72303341918620     -0.30535032674403
  H   8.64020555390434     -2.91410238552241      0.42485793547232
  H   8.33383270681634     -0.37251839823643      0.95019932321515
