20
Coordinates from ORCA-job 3_opt
  C   -1.54513367356989     -1.24482067866105      0.50196870669885
  C   -0.91885572828570     -1.41282793614040     -0.74751314480569
  N   0.37713715391171     -1.12518612200619     -0.93599156883842
  C   1.06281348090590     -0.65955253860051      0.12720238449647
  C   0.42019754800882     -0.48350245479914      1.37365558104048
  N   -0.87521743657285     -0.77594064195354      1.56673820341189
  C   2.53864969926018     -0.35750095932224     -0.07511331918098
  C   3.37043148339510     -1.60538156649881     -0.26084032794090
  C   3.48369194543170     -2.36534004724569     -1.40636243057239
  O   4.28531466141722     -3.44915385682245     -1.18896856252097
  C   4.69320889356560     -3.39483329997160      0.11258563943965
  C   4.16219560246522     -2.28902069482828      0.73356531880298
  H   -2.61196986871232     -1.49558176262269      0.64129440292372
  H   -1.48518112181095     -1.79068724526703     -1.61818714806344
  H   0.98019807387327     -0.09022475886004      2.24195953622462
  H   2.92231962314506      0.22413755971156      0.78745361574406
  H   2.62833576684966      0.28847451639216     -0.97342203377454
  H   3.05678397287996     -2.27166823086962     -2.40955940046747
  H   5.35318628768797     -4.20420882814079      0.44164512662149
  H   4.32089363615433     -1.98520045349364      1.77487942076058
