26
Coordinates from ORCA-job 40_opt
  O   1.27343650879674     -1.79585617263529     -2.68375931699304
  C   2.22807026202063     -0.76518182768460     -2.43172549050186
  C   3.49847361482499     -1.35755310671290     -1.88736951726189
  C   4.84226654321866     -0.98258771941693     -2.25458885572936
  C   5.68303146534274     -1.75445421905949     -1.49138145280473
  O   4.95713129689022     -2.58349121172055     -0.68443159526944
  C   3.62391113455674     -2.34068903504497     -0.91847606816184
  C   2.64097452370871     -3.15895664991922     -0.14751591058977
  C   2.71929509360757     -4.68843110979005     -0.39223610032250
  C   1.86363971382583     -5.25889351389376      0.74817052310914
  C   2.24362830114108     -4.39575547382009      1.97890014675750
  C   2.74724193516238     -3.03631776876696      1.40566537722876
  H   0.42553856237192     -1.36090539245720     -2.88905091098226
  H   1.81998435661846     -0.01577590657293     -1.70613945267509
  H   2.47413106576693     -0.19463921300241     -3.36098595405900
  H   5.13811371588203     -0.23275225934891     -2.99845395296856
  H   6.77203608958045     -1.83794905627511     -1.41113142168303
  H   1.64030959666813     -2.81961498146506     -0.48401655619137
  H   3.77535310144628     -5.02369101963227     -0.29747436243044
  H   2.36658294499710     -4.96941550029816     -1.40499014938227
  H   2.01878940763189     -6.34499147285443      0.91458272186266
  H   0.78761079247133     -5.12059953483037      0.50271220460654
  H   3.05205347121595     -4.88932269272116      2.55798967076744
  H   1.39071235454868     -4.27134011325722      2.67720916364835
  H   3.80348810486762     -2.86043125450606      1.69200500422926
  H   2.16719604283694     -2.16938379431391      1.78147225579680
