24
Coordinates from ORCA-job 46_opt
  O   1.46285289566523      0.32054765079655      0.96316418084698
  C   2.63880164264700      0.28279691241848      1.73051148104833
  C   2.57353650962147      1.30661261931185      2.87401606471670
  C   3.67204601624540      0.85060884813110      3.85945798647263
  C   3.87896841227365     -0.67940821582981      3.60158957481532
  C   2.90546227693221     -1.04667296430396      2.45961025914180
  O   3.81006990662031      0.47732859489044      0.89406176339048
  C   3.99914257810352      1.69099551935163      0.29410400003631
  C   5.24137037183924      2.26462220302408      0.09713487560286
  O   5.10439129134410      3.43463664826999     -0.60070333356495
  C   3.77416443536378      3.61642362588468     -0.83555719332104
  C   3.03563842203040      2.57753016181704     -0.31813559907346
  H   1.54073580508884     -0.38393217940787      0.28940603814780
  H   1.56149121953820      1.23115018409489      3.32153123175949
  H   2.69863138864441      2.34595326119528      2.51147662063995
  H   3.39109974161872      1.06831052066289      4.90928954584245
  H   4.61343023412514      1.40337589574453      3.66600002299790
  H   3.69150210495198     -1.28837205046205      4.50858721865131
  H   4.92472138936852     -0.87983111737270      3.29510226669079
  H   1.93208031483423     -1.40561192998236      2.85263769078643
  H   3.30119404824186     -1.81386739803043      1.76320349002113
  H   6.25706862423853      1.95680123846201      0.35978300815829
  H   3.50541244338655      4.52814946116855     -1.37943199024391
  H   1.95120792727669      2.43884251016520     -0.35184920356358
