20
Coordinates from ORCA-job 25_opt
  C   1.67833367881282      1.51880585392299     -0.16105492891592
  O   2.09816668232564      0.20582905540922     -0.50205417060605
  C   3.01681010811898      0.12496923189397     -1.49762685564351
  C   3.61704779580238      1.12695785711229     -2.23731219156615
  O   4.48598901066069      0.56548148393141     -3.14022261676237
  C   4.43617169199421     -0.78327671985670     -2.97277621689752
  C   3.54825969062981     -1.13857597789843     -1.97273581871356
  C   3.21334953569489     -2.47642598498827     -1.49552855061063
  C   2.32562749550533     -2.81298571791589     -0.48699769481734
  O   2.27450845952901     -4.16698823317571     -0.32021620893692
  C   3.13481637524449     -4.71820273150696     -1.22634704732655
  C   3.73902602341502     -3.73892374343259     -1.97344555110181
  H   0.93642424811961      1.42110997121028      0.65317204184438
  H   1.20505804877670      2.03038009897812     -1.03055763494693
  H   2.53407737926632      2.13775662897979      0.19434096816425
  H   3.54172710088893      2.21723170764865     -2.24893926145564
  H   5.08337234732529     -1.37145293802078     -3.63132987260837
  H   1.68916407061921     -2.21267703348723      0.16800476072029
  H   3.20751872174237     -5.81094261531455     -1.21539534631781
  H   4.47256153552828     -3.89307019348961     -2.77296780350184
