26
Coordinates from ORCA-job 38_opt
  O   1.15935872116228      0.04570294027875     -0.39232151593522
  C   2.27578404814280      0.01206250046200      0.49446379701294
  C   2.11964100068247      0.95552758162363      1.71906247665196
  C   3.08493564807612      0.40862907103396      2.79937684390920
  C   3.39906602479252     -1.06800991073504      2.38410170497074
  C   2.48562154349818     -1.36018083303888      1.17843612179350
  C   3.48553632687512      0.44566351189696     -0.37334320039621
  C   3.88658547094317     -0.52988246481581     -1.43299894772002
  C   3.26826370867061     -1.02704362353967     -2.56179066953118
  C   4.18581388268405     -1.95949219154460     -3.15800785653453
  C   5.29970834496977     -1.96791798377335     -2.35078479254261
  O   5.12955794644171     -1.10807255321926     -1.30156202667415
  H   0.41295427691517     -0.38495884432247      0.06541161841952
  H   1.06390547968361      0.88482544993235      2.06120948627544
  H   2.29619773008631      2.01869762410448      1.45527176560310
  H   2.63130528065003      0.46548989746080      3.80956263069499
  H   4.01684356686308      1.00828998290439      2.84984061434826
  H   3.23915953050197     -1.78536596661121      3.21417804446871
  H   4.46314741359776     -1.16894547483191      2.08646570471175
  H   1.48889729356478     -1.71994682694416      1.52381411700664
  H   2.88199145381825     -2.12714720325349      0.48279302112093
  H   4.36542494173279      0.63769545058973      0.27179871139834
  H   3.20461758743341      1.41706916426164     -0.83466115853994
  H   2.26625943981814     -0.75333366990027     -2.90648152919016
  H   4.04012780631103     -2.54396751503201     -4.07382596123284
  H   6.25727553208485     -2.49739811298657     -2.38399900008916
