18
Coordinates from ORCA-job 45_opt
  O   0.00857709102961      0.88263550004442      0.32497699351253
  C   1.31982243682691      0.60564657719385      0.22823266279139
  O   2.06569574002556      1.41582840094499     -0.56398008000889
  C   3.37195220536404      0.94202899240311     -0.52690677569896
  C   3.41242245387386     -0.15362005964033      0.30525694652815
  C   2.07660980477855     -0.38964609756619      0.80510488191380
  O   4.56611016015713     -0.81520735988187      0.63082218555532
  C   4.50976441246325     -2.16186624815554      0.87418789313270
  C   5.34927257705309     -2.82236262063935      1.74850979775407
  O   5.09019476669917     -4.16478216653066      1.69687788326072
  C   4.08134612398272     -4.35595557908734      0.80118668636711
  C   3.67815530100913     -3.16087475710696      0.25190578965426
  H   -0.16688271299746      1.68778220009468     -0.20143436406552
  H   4.11863390294145      1.49540266800892     -1.09937657401094
  H   1.73308842821798     -1.16791524282240      1.49158636453195
  H   6.14740165684776     -2.48965184784830      2.41750940998712
  H   3.75720299590370     -5.39183474740718      0.65795414804234
  H   2.89563265582356     -3.00260761200387     -0.49741384924714
