24
Coordinates from ORCA-job 48_opt
  O   0.92426878815456      0.17822361838341      0.47065745130202
  C   2.30976945460164      0.51340885621136      0.45162643186798
  C   2.68988352329907      1.69641515133998      1.37872710421279
  C   4.07749223326715      1.32538156994672      1.93073880295422
  C   3.93163247044510     -0.18668517545683      2.18454056054789
  C   3.13401688743705     -0.70584924202554      0.97773218903798
  O   4.08791577158693     -1.17219404060371      0.00210792586546
  C   3.57481927992356     -1.81991368850000     -1.05848816306433
  C   2.29775127101661     -2.07944270414255     -1.52086478417355
  C   2.49022978339951     -2.85221161348436     -2.72427987670266
  C   3.84426589986731     -2.99442668453292     -2.89465006721806
  O   4.51841236734335     -2.36030844676618     -1.87015606349973
  H   0.43716129453199      0.91304322559538      0.05382784834548
  H   2.65491690736754      0.71883877510240     -0.58949037118536
  H   1.94816394274335      1.72183102305438      2.20677925824709
  H   2.65873338721759      2.67960113700101      0.86534473108955
  H   4.35905865712384      1.90159950510156      2.83528785705314
  H   4.86213816273846      1.50740353584918      1.16509681287779
  H   3.33351729058457     -0.35536310587488      3.10450690486788
  H   4.88720393779282     -0.73439481960400      2.29771886112713
  H   2.44081684154636     -1.53901782799764      1.22876014439093
  H   1.36315103058071     -1.72988141470954     -1.07021744315576
  H   1.70821996203934     -3.24992362506287     -3.38173028343096
  H   4.47647085539159     -3.48312400882438     -3.64157583135691
