24
Coordinates from ORCA-job 49_opt
  O   1.09206289635798     -0.31349237868253     -0.05879314214195
  C   2.46831437999052      0.00896526254079      0.04736443333775
  C   2.80638500469002      1.10018518740696      1.08051765983137
  C   4.30494752596105      0.88663835681202      1.40238665393158
  C   4.61065218025419     -0.59781947105569      1.02838590011344
  C   3.25688062897321     -1.21527060167227      0.57738922288576
  C   3.36097112211624     -2.36950311100089     -0.36216224239501
  O   2.69795002877168     -3.53552116743657     -0.04473423524071
  C   2.91997008828327     -4.43643929668882     -1.03650809289676
  C   3.72132882342287     -3.89132360450821     -2.01635034155054
  C   4.00464311330702     -2.55202533381212     -1.57683965478226
  O   4.75495830874683     -1.58955531134379     -2.19960368493312
  H   0.65747100287107      0.41090549284791     -0.54340617295054
  H   2.89397350301586      0.28897815137817     -0.94900713577558
  H   2.17202926690480      0.91143042337136      1.97310954360244
  H   2.57427909609545      2.12508335938325      0.72226174233300
  H   4.52612503746596      1.10559302577440      2.46634914340456
  H   4.93942838819033      1.57249642991397      0.80562626977476
  H   5.05256660547966     -1.17543477209008      1.86441440864696
  H   5.33329698472443     -0.64841016908605      0.18853287359389
  H   2.68926349244685     -1.57516855416111      1.46352412639568
  H   2.45091484824528     -5.41767891006226     -0.91336796714217
  H   4.06474701213899     -4.38110735655598     -2.93559876267194
  H   5.13883066154643     -1.97650565127246     -3.00651054537064
