27
Coordinates from ORCA-job 4_opt
  C   4.42153821961487     -1.78306004024521      2.56846421144480
  C   4.23019192039256     -0.97904788396303      1.30030220780407
  C   4.99115928063520      0.19368186130118      1.11824821026534
  C   4.82860239227941      0.98393491851149     -0.02727137322661
  C   3.88980976878516      0.55889682348061     -0.97923670539201
  N   3.15459838562126     -0.55250331099279     -0.83528215581137
  C   3.30111818558989     -1.31941837533955      0.26982180724418
  C   2.42120644536849     -2.56245863453290      0.27967250541256
  C   3.17217544811503     -3.90950127388778      0.05725221814217
  C   2.19113969988571     -4.96500902376674      0.59481416168107
  C   1.64055780587613     -4.31218314141094      1.87871185928644
  C   1.50120827821035     -2.80709056214644      1.52824308290439
  H   5.42246944308993     -1.59190632266891      3.00512472797277
  H   4.32419844744109     -2.87265035481810      2.40573189517436
  H   3.67231572816348     -1.50624427388335      3.34138250081375
  H   5.72200324663561      0.48382606690546      1.89204897220474
  H   5.41506008011075      1.90310473873861     -0.17757748324809
  H   3.72218041092182      1.14130992130755     -1.90404465603231
  H   1.76479034376821     -2.41578684677617     -0.60086888495212
  H   4.11740220626600     -3.93873630749757      0.64013140220225
  H   3.44853980568576     -4.05351617568015     -1.00673174774438
  H   2.65997836965948     -5.95506719304979      0.77220857940102
  H   1.36834924114183     -5.11913433204141     -0.13767865103176
  H   2.37263704117109     -4.45066792506317      2.70410110579370
  H   0.68764713717263     -4.76302785413943      2.22306781978954
  H   1.75609529825300     -2.15483735029688      2.38697090483607
  H   0.45302737014527     -2.55891714804459      1.26338348506545
